%%%%%%%%%%%%%%%%%%%%%%%%%%%%%%%%%%%%%%%%%%%%%%%%%%%%%%%%%%%%%
%                                                           %
% Base cfg file to be copied and used for WuFoil program    %
% Author: Mike Kiely                                        %
%                                                           %
%%%%%%%%%%%%%%%%%%%%%%%%%%%%%%%%%%%%%%%%%%%%%%%%%%%%%%%%%%%%%

% -------------------- TURBULENT NUMERICAL METHOD DEFINITION ------------------%
%
SOLVER= EULER
MATH_PROBLEM= DIRECT
KIND_TURB_MODEL= SA
RESTART_SOL= NO

% -------------------- TURBULENT NUMERICAL METHOD DEFINITION ------------------%
%

CONV_NUM_METHOD_TURB= SCALAR_UPWIND
MUSCL_TURB= NO
SLOPE_LIMITER_TURB= VENKATAKRISHNAN
TIME_DISCRE_TURB= EULER_IMPLICIT

% ----------- COMPRESSIBLE AND INCOMPRESSIBLE FREE-STREAM DEFINITION ----------%
%
MACH_NUMBER = .78
AOA= 2
FREESTREAM_PRESSURE= 101325
FREESTREAM_TEMPERATURE= 273.15
REYNOLDS_NUMBER= 2000000
REYNOLDS_LENGTH= 1

% -------------- COMPRESSIBLE AND INCOMPRESSIBLE FLUID CONSTANTS --------------%
%
GAMMA_VALUE= 1.4
GAS_CONSTANT= 287.87

% ---------------------- REFERENCE VALUE DEFINITION ---------------------------%
%
REF_ORIGIN_MOMENT_X = 0.25
REF_ORIGIN_MOMENT_Y = 0.00
REF_ORIGIN_MOMENT_Z = 0.00
REF_LENGTH= 1.0
REF_AREA= 1.0
REF_DIMENSIONALIZATION= FREESTREAM_PRESS_EQ_ONE

% ----------------------- BOUNDARY CONDITION DEFINITION -----------------------%
%
MARKER_HEATFLUX= ( AIRFOIL, 0.0 )
MARKER_FAR= ( INLET, OUTLET )

% ------------------------ SURFACES IDENTIFICATION ----------------------------%
%
MARKER_PLOTTING= ( AIRFOIL )
MARKER_MONITORING = ( AIRFOIL )
MARKER_DESIGNING= ( AIRFOIL )

% ------------- COMMON PARAMETERS TO DEFINE THE NUMERICAL METHOD --------------%
%
NUM_METHOD_GRAD= WEIGHTED_LEAST_SQUARES
OBJECTIVE_FUNCTION= DRAG
CFL_NUMBER= 10
CFL_ADAPT= NO
CFL_ADAPT_PARAM= ( .1, 2, 10, 1E3 )
ITER= 600

% ------------------------ LINEAR SOLVER DEFINITION ---------------------------%
%
LINEAR_SOLVER= FGMRES
LINEAR_SOLVER_PREC= LU_SGS
LINEAR_SOLVER_ERROR= 1E-6
LINEAR_SOLVER_ITER= 5

% -------------------------- MULTIGRID PARAMETERS -----------------------------%
%
MGLEVEL= 0
MGCYCLE= W_CYCLE
MG_PRE_SMOOTH= ( 1, 2, 3, 3 )
MG_POST_SMOOTH= ( 0, 0, 0, 0 )
MG_CORRECTION_SMOOTH= ( 0, 0, 0, 0 )
MG_DAMP_RESTRICTION= 1.0
MG_DAMP_PROLONGATION= 1.0

% -------------------- FLOW NUMERICAL METHOD DEFINITION -----------------------%
%
CONV_NUM_METHOD_FLOW= JST
JST_SENSOR_COEFF= ( 0.5, 0.02 )
SLOPE_LIMITER_FLOW= VENKATAKRISHNAN
TIME_DISCRE_FLOW= EULER_IMPLICIT
MUSCL_FLOW= NO

% ---------------- ADJOINT-FLOW NUMERICAL METHOD DEFINITION -------------------%
%
CONV_NUM_METHOD_ADJFLOW= JST
MUSCL_ADJFLOW= YES
SLOPE_LIMITER_ADJFLOW= NONE
CFL_REDUCTION_ADJFLOW= 0.1
TIME_DISCRE_ADJFLOW= EULER_IMPLICIT

% --------------------------- CONVERGENCE PARAMETERS --------------------------%
%
CONV_FIELD= RMS_DENSITY
CONV_RESIDUAL_MINVAL= -6
CONV_STARTITER= 50
CONV_CAUCHY_ELEMS= 100
CONV_CAUCHY_EPS= 1E-4

% ------------------------- INPUT/OUTPUT INFORMATION --------------------------%
%
OUTPUT_FILES= ( PARAVIEW, SURFACE_CSV )
MESH_FILENAME= meshes/airfoil.su2
MESH_FORMAT= SU2
MESH_OUT_FILENAME= meshes/airfoil.su2
SOLUTION_FILENAME= results/solution_flow.dat
SOLUTION_ADJ_FILENAME= results/solution_adj.dat
TABULAR_FORMAT= CSV
CONV_FILENAME= results/history
RESTART_FILENAME= results/restart_flow.dat
RESTART_ADJ_FILENAME= results/restart_adj.dat
VOLUME_FILENAME= results/flow
VOLUME_ADJ_FILENAME= results/adjoint
GRAD_OBJFUNC_FILENAME= results/of_grad.dat
SURFACE_FILENAME= results/surface_flow
SURFACE_ADJ_FILENAME= results/surface_adjoint
SCREEN_OUTPUT = (INNER_ITER, RMS_DENSITY, RMS_ENERGY, LIFT, DRAG, LIFT, DRAG)
HISTORY_OUTPUT = (ITER, RMS_RES, AERO_COEFF, AOA)


% ----------------------------- CL DRIVER DEFINITION ---------------------------%
%
FIXED_CL_MODE= NO
TARGET_CL= 0.7
DCL_DALPHA= 0.2
UPDATE_AOA_ITER_LIMIT= 200
ITER_DCL_DALPHA= 0

% ------------------------------- MESH SCALING ---------------------------------%
DV_KIND= SCALE_GRID
DV_PARAM = (1.0)
DV_VALUE = 1